<?xml version="1.0" encoding="UTF-8"?>

<!-- generated on 2023-11-04 10:15:49 by Eclipse SUMO netedit Version 1.18.0
<configuration xmlns:xsi="http://www.w3.org/2001/XMLSchema-instance" xsi:noNamespaceSchemaLocation="http://sumo.dlr.de/xsd/neteditConfiguration.xsd">

    <input>
        <sumo-net-file value="C:\Users\sachu\OneDrive\Desktop\simulate\hojo.net.xml"/>
    </input>

    <output>
        <output-file value="C:\Users\sachu\OneDrive\Desktop\simulate\hojo.net.xml"/>
    </output>

    <processing>
        <geometry.min-radius.fix.railways value="false"/>
        <geometry.max-grade.fix value="false"/>
        <offset.disable-normalization value="true"/>
        <lefthand value="0"/>
    </processing>

    <junctions>
        <no-turnarounds value="true"/>
        <junctions.corner-detail value="5"/>
        <junctions.limit-turn-speed value="5.50"/>
        <rectangular-lane-cut value="0"/>
    </junctions>

    <pedestrian>
        <walkingareas value="0"/>
    </pedestrian>

</configuration>
-->

<net version="1.16" junctionCornerDetail="5" limitTurnSpeed="5.50" xmlns:xsi="http://www.w3.org/2001/XMLSchema-instance" xsi:noNamespaceSchemaLocation="http://sumo.dlr.de/xsd/net_file.xsd">

    <location netOffset="0.00,0.00" convBoundary="-362.81,-931.39,-35.18,-709.60" origBoundary="-10000000000.00,-10000000000.00,10000000000.00,10000000000.00" projParameter="!"/>

    <edge id=":J11_0" function="internal">
        <lane id=":J11_0_0" index="0" speed="7.12" length="9.99" shape="-171.89,-763.86 -172.44,-766.55 -173.66,-768.52 -175.57,-769.77 -178.16,-770.30"/>
    </edge>
    <edge id=":J11_1" function="internal">
        <lane id=":J11_1_0" index="0" speed="13.89" length="14.97" shape="-171.89,-763.86 -172.10,-767.60 -172.22,-771.34 -172.25,-775.07 -172.18,-778.82"/>
    </edge>
    <edge id=":J11_2" function="internal">
        <lane id=":J11_2_0" index="0" speed="7.83" length="4.25" shape="-171.89,-763.86 -171.58,-767.90 -171.49,-768.08"/>
    </edge>
    <edge id=":J11_12" function="internal">
        <lane id=":J11_12_0" index="0" speed="7.83" length="10.34" shape="-171.49,-768.08 -170.03,-770.75 -167.24,-772.39 -163.21,-772.84"/>
    </edge>
    <edge id=":J11_3" function="internal">
        <lane id=":J11_3_0" index="0" speed="6.30" length="9.04" shape="-163.32,-769.64 -165.82,-769.36 -167.55,-768.34 -168.51,-766.58 -168.70,-764.07"/>
    </edge>
    <edge id=":J11_4" function="internal">
        <lane id=":J11_4_0" index="0" speed="13.89" length="14.86" shape="-163.32,-769.64 -178.16,-770.30"/>
    </edge>
    <edge id=":J11_5" function="internal">
        <lane id=":J11_5_0" index="0" speed="8.10" length="4.30" shape="-163.32,-769.64 -167.30,-770.33 -167.52,-770.47"/>
    </edge>
    <edge id=":J11_13" function="internal">
        <lane id=":J11_13_0" index="0" speed="8.10" length="10.24" shape="-167.52,-770.47 -170.10,-772.09 -171.73,-774.92 -172.18,-778.82"/>
    </edge>
    <edge id=":J11_6" function="internal">
        <lane id=":J11_6_0" index="0" speed="6.63" length="9.39" shape="-168.98,-778.72 -168.69,-776.22 -167.63,-774.41 -165.80,-773.28 -163.21,-772.84"/>
    </edge>
    <edge id=":J11_7" function="internal">
        <lane id=":J11_7_0" index="0" speed="13.89" length="14.66" shape="-168.98,-778.72 -169.05,-775.03 -169.02,-771.40 -168.90,-767.77 -168.70,-764.07"/>
    </edge>
    <edge id=":J11_8" function="internal">
        <lane id=":J11_8_0" index="0" speed="7.96" length="3.93" shape="-168.98,-778.72 -169.66,-774.85"/>
    </edge>
    <edge id=":J11_14" function="internal">
        <lane id=":J11_14_0" index="0" speed="7.96" length="10.36" shape="-169.66,-774.85 -171.41,-772.16 -174.25,-770.64 -178.16,-770.30"/>
    </edge>
    <edge id=":J11_9" function="internal">
        <lane id=":J11_9_0" index="0" speed="6.45" length="9.03" shape="-177.98,-773.49 -175.51,-773.71 -173.72,-774.67 -172.61,-776.37 -172.18,-778.82"/>
    </edge>
    <edge id=":J11_10" function="internal">
        <lane id=":J11_10_0" index="0" speed="13.89" length="14.79" shape="-177.98,-773.49 -163.21,-772.84"/>
    </edge>
    <edge id=":J11_11" function="internal">
        <lane id=":J11_11_0" index="0" speed="8.52" length="4.02" shape="-177.98,-773.49 -174.15,-772.72 -174.06,-772.67"/>
    </edge>
    <edge id=":J11_15" function="internal">
        <lane id=":J11_15_0" index="0" speed="8.52" length="10.69" shape="-174.06,-772.67 -171.32,-770.90 -169.50,-768.01 -168.70,-764.07"/>
    </edge>
    <edge id=":J13_0" function="internal">
        <lane id=":J13_0_0" index="0" speed="7.27" length="9.90" shape="-76.46,-761.01 -77.21,-763.54 -78.58,-765.37 -80.58,-766.52 -83.21,-766.96"/>
    </edge>
    <edge id=":J13_1" function="internal">
        <lane id=":J13_1_0" index="0" speed="13.89" length="15.29" shape="-76.46,-761.01 -76.93,-764.77 -77.22,-768.61 -77.35,-772.46 -77.32,-776.25"/>
    </edge>
    <edge id=":J13_2" function="internal">
        <lane id=":J13_2_0" index="0" speed="8.18" length="4.14" shape="-76.46,-761.01 -76.45,-764.88 -76.34,-765.12"/>
    </edge>
    <edge id=":J13_12" function="internal">
        <lane id=":J13_12_0" index="0" speed="8.18" length="10.60" shape="-76.34,-765.12 -75.11,-767.87 -72.43,-769.97 -68.43,-771.19"/>
    </edge>
    <edge id=":J13_3" function="internal">
        <lane id=":J13_3_0" index="0" speed="6.73" length="9.63" shape="-67.90,-768.03 -70.58,-767.24 -72.37,-765.88 -73.27,-763.96 -73.30,-761.48"/>
    </edge>
    <edge id=":J13_4" function="internal">
        <lane id=":J13_4_0" index="0" speed="13.89" length="15.37" shape="-67.90,-768.03 -71.67,-767.50 -75.53,-767.13 -79.41,-766.94 -83.21,-766.96"/>
    </edge>
    <edge id=":J13_5" function="internal">
        <lane id=":J13_5_0" index="0" speed="7.70" length="4.47" shape="-67.90,-768.03 -72.13,-767.94 -72.35,-768.04"/>
    </edge>
    <edge id=":J13_13" function="internal">
        <lane id=":J13_13_0" index="0" speed="7.70" length="10.52" shape="-72.35,-768.04 -75.11,-769.28 -76.84,-772.05 -77.32,-776.25"/>
    </edge>
    <edge id=":J13_6" function="internal">
        <lane id=":J13_6_0" index="0" speed="6.13" length="9.06" shape="-74.12,-776.16 -73.83,-773.62 -72.78,-771.95 -70.98,-771.13 -68.43,-771.19"/>
    </edge>
    <edge id=":J13_7" function="internal">
        <lane id=":J13_7_0" index="0" speed="13.89" length="14.72" shape="-74.12,-776.16 -74.16,-772.45 -74.04,-768.80 -73.76,-765.16 -73.30,-761.48"/>
    </edge>
    <edge id=":J13_8" function="internal">
        <lane id=":J13_8_0" index="0" speed="8.14" length="4.19" shape="-74.12,-776.16 -74.79,-772.02"/>
    </edge>
    <edge id=":J13_14" function="internal">
        <lane id=":J13_14_0" index="0" speed="8.14" length="10.57" shape="-74.79,-772.02 -76.53,-769.11 -79.34,-767.43 -83.21,-766.96"/>
    </edge>
    <edge id=":J13_9" function="internal">
        <lane id=":J13_9_0" index="0" speed="6.67" length="9.58" shape="-83.10,-770.16 -80.64,-770.47 -78.86,-771.59 -77.75,-773.52 -77.32,-776.25"/>
    </edge>
    <edge id=":J13_10" function="internal">
        <lane id=":J13_10_0" index="0" speed="13.89" length="14.74" shape="-83.10,-770.16 -79.40,-770.14 -75.74,-770.31 -72.10,-770.66 -68.43,-771.19"/>
    </edge>
    <edge id=":J13_11" function="internal">
        <lane id=":J13_11_0" index="0" speed="8.65" length="3.87" shape="-83.10,-770.16 -79.29,-769.51"/>
    </edge>
    <edge id=":J13_15" function="internal">
        <lane id=":J13_15_0" index="0" speed="8.65" length="10.53" shape="-79.29,-769.51 -76.38,-767.85 -74.39,-765.17 -73.30,-761.48"/>
    </edge>
    <edge id=":J16_0" function="internal">
        <lane id=":J16_0_0" index="0" speed="13.89" length="14.27" shape="-72.43,-825.42 -73.08,-811.17"/>
    </edge>
    <edge id=":J16_1" function="internal">
        <lane id=":J16_1_0" index="0" speed="7.92" length="3.97" shape="-72.43,-825.42 -73.23,-821.53"/>
    </edge>
    <edge id=":J16_6" function="internal">
        <lane id=":J16_6_0" index="0" speed="7.92" length="10.41" shape="-73.23,-821.53 -75.08,-818.90 -77.99,-817.51 -81.96,-817.38"/>
    </edge>
    <edge id=":J16_2" function="internal">
        <lane id=":J16_2_0" index="0" speed="6.40" length="9.04" shape="-81.61,-820.56 -79.12,-820.64 -77.29,-821.51 -76.13,-823.17 -75.62,-825.61"/>
    </edge>
    <edge id=":J16_3" function="internal">
        <lane id=":J16_3_0" index="0" speed="8.25" length="14.23" shape="-81.61,-820.56 -77.78,-819.61 -75.09,-817.73 -73.52,-814.92 -73.08,-811.17"/>
    </edge>
    <edge id=":J16_4" function="internal">
        <lane id=":J16_4_0" index="0" speed="6.80" length="9.36" shape="-76.28,-811.26 -76.57,-813.70 -77.62,-815.53 -79.41,-816.76 -81.96,-817.38"/>
    </edge>
    <edge id=":J16_5" function="internal">
        <lane id=":J16_5_0" index="0" speed="13.89" length="14.36" shape="-76.28,-811.26 -75.62,-825.61"/>
    </edge>
    <edge id=":J17_0" function="internal">
        <lane id=":J17_0_0" index="0" speed="6.34" length="9.04" shape="-161.86,-826.12 -164.37,-826.03 -166.18,-825.15 -167.30,-823.48 -167.73,-821.01"/>
    </edge>
    <edge id=":J17_1" function="internal">
        <lane id=":J17_1_0" index="0" speed="13.89" length="14.79" shape="-161.86,-826.12 -176.55,-827.88"/>
    </edge>
    <edge id=":J17_2" function="internal">
        <lane id=":J17_2_0" index="0" speed="8.11" length="4.26" shape="-161.86,-826.12 -165.74,-827.10 -165.95,-827.25"/>
    </edge>
    <edge id=":J17_12" function="internal">
        <lane id=":J17_12_0" index="0" speed="8.11" length="10.24" shape="-165.95,-827.25 -168.39,-829.07 -169.80,-832.01 -169.97,-835.94"/>
    </edge>
    <edge id=":J17_3" function="internal">
        <lane id=":J17_3_0" index="0" speed="6.64" length="9.37" shape="-166.79,-835.62 -166.67,-833.09 -165.76,-831.20 -164.04,-829.93 -161.52,-829.30"/>
    </edge>
    <edge id=":J17_4" function="internal">
        <lane id=":J17_4_0" index="0" speed="13.89" length="14.64" shape="-166.79,-835.62 -167.73,-821.01"/>
    </edge>
    <edge id=":J17_5" function="internal">
        <lane id=":J17_5_0" index="0" speed="7.95" length="3.94" shape="-166.79,-835.62 -167.73,-831.80"/>
    </edge>
    <edge id=":J17_13" function="internal">
        <lane id=":J17_13_0" index="0" speed="7.95" length="10.37" shape="-167.73,-831.80 -169.68,-829.23 -172.62,-827.93 -176.55,-827.88"/>
    </edge>
    <edge id=":J17_6" function="internal">
        <lane id=":J17_6_0" index="0" speed="6.44" length="9.03" shape="-176.14,-831.05 -173.65,-831.08 -171.80,-831.91 -170.57,-833.53 -169.97,-835.94"/>
    </edge>
    <edge id=":J17_7" function="internal">
        <lane id=":J17_7_0" index="0" speed="13.89" length="14.73" shape="-176.14,-831.05 -161.52,-829.30"/>
    </edge>
    <edge id=":J17_8" function="internal">
        <lane id=":J17_8_0" index="0" speed="8.42" length="4.03" shape="-176.14,-831.05 -172.36,-830.00 -172.28,-829.93"/>
    </edge>
    <edge id=":J17_14" function="internal">
        <lane id=":J17_14_0" index="0" speed="8.42" length="10.60" shape="-172.28,-829.93 -169.70,-827.98 -168.16,-824.98 -167.73,-821.01"/>
    </edge>
    <edge id=":J17_9" function="internal">
        <lane id=":J17_9_0" index="0" speed="7.01" length="9.83" shape="-170.93,-821.11 -171.21,-823.78 -172.25,-825.81 -174.03,-827.17 -176.55,-827.88"/>
    </edge>
    <edge id=":J17_10" function="internal">
        <lane id=":J17_10_0" index="0" speed="13.89" length="14.86" shape="-170.93,-821.11 -169.97,-835.94"/>
    </edge>
    <edge id=":J17_11" function="internal">
        <lane id=":J17_11_0" index="0" speed="7.86" length="4.41" shape="-170.93,-821.11 -170.24,-825.07 -170.02,-825.39"/>
    </edge>
    <edge id=":J17_15" function="internal">
        <lane id=":J17_15_0" index="0" speed="7.86" length="10.10" shape="-170.02,-825.39 -168.44,-827.75 -165.53,-829.16 -161.52,-829.30"/>
    </edge>
    <edge id=":J18_0" function="internal">
        <lane id=":J18_0_0" index="0" speed="7.06" length="9.92" shape="-156.92,-875.37 -159.53,-874.97 -161.48,-873.82 -162.77,-871.92 -163.41,-869.28"/>
    </edge>
    <edge id=":J18_1" function="internal">
        <lane id=":J18_1_0" index="0" speed="13.89" length="14.85" shape="-156.92,-875.37 -171.76,-875.39"/>
    </edge>
    <edge id=":J18_2" function="internal">
        <lane id=":J18_2_0" index="0" speed="7.94" length="4.17" shape="-156.92,-875.37 -160.83,-875.89 -161.03,-876.01"/>
    </edge>
    <edge id=":J18_12" function="internal">
        <lane id=":J18_12_0" index="0" speed="7.94" length="10.16" shape="-161.03,-876.01 -163.59,-877.55 -165.20,-880.34 -165.65,-884.26"/>
    </edge>
    <edge id=":J18_3" function="internal">
        <lane id=":J18_3_0" index="0" speed="6.43" length="9.03" shape="-162.45,-884.17 -162.17,-881.70 -161.15,-879.94 -159.41,-878.90 -156.95,-878.57"/>
    </edge>
    <edge id=":J18_4" function="internal">
        <lane id=":J18_4_0" index="0" speed="13.89" length="14.92" shape="-162.45,-884.17 -163.41,-869.28"/>
    </edge>
    <edge id=":J18_5" function="internal">
        <lane id=":J18_5_0" index="0" speed="8.14" length="4.37" shape="-162.45,-884.17 -163.12,-880.29 -163.36,-879.92"/>
    </edge>
    <edge id=":J18_13" function="internal">
        <lane id=":J18_13_0" index="0" speed="8.14" length="10.17" shape="-163.36,-879.92 -164.90,-877.53 -167.78,-875.90 -171.76,-875.39"/>
    </edge>
    <edge id=":J18_6" function="internal">
        <lane id=":J18_6_0" index="0" speed="6.68" length="9.44" shape="-171.73,-878.59 -169.13,-878.92 -167.25,-879.97 -166.09,-881.75 -165.65,-884.26"/>
    </edge>
    <edge id=":J18_7" function="internal">
        <lane id=":J18_7_0" index="0" speed="13.89" length="14.78" shape="-171.73,-878.59 -156.95,-878.57"/>
    </edge>
    <edge id=":J18_8" function="internal">
        <lane id=":J18_8_0" index="0" speed="7.85" length="4.03" shape="-171.73,-878.59 -167.74,-877.97"/>
    </edge>
    <edge id=":J18_14" function="internal">
        <lane id=":J18_14_0" index="0" speed="7.85" length="10.50" shape="-167.74,-877.97 -165.03,-876.21 -163.58,-873.31 -163.41,-869.28"/>
    </edge>
    <edge id=":J18_9" function="internal">
        <lane id=":J18_9_0" index="0" speed="6.32" length="9.04" shape="-166.59,-869.60 -166.70,-872.11 -167.60,-873.91 -169.29,-875.00 -171.76,-875.39"/>
    </edge>
    <edge id=":J18_10" function="internal">
        <lane id=":J18_10_0" index="0" speed="13.89" length="14.69" shape="-166.59,-869.60 -165.65,-884.26"/>
    </edge>
    <edge id=":J18_11" function="internal">
        <lane id=":J18_11_0" index="0" speed="8.47" length="4.00" shape="-166.59,-869.60 -165.65,-873.49"/>
    </edge>
    <edge id=":J18_15" function="internal">
        <lane id=":J18_15_0" index="0" speed="8.47" length="10.68" shape="-165.65,-873.49 -163.73,-876.29 -160.83,-877.98 -156.95,-878.57"/>
    </edge>
    <edge id=":J19_0" function="internal">
        <lane id=":J19_0_0" index="0" speed="13.89" length="14.63" shape="-69.19,-884.85 -69.73,-870.23"/>
    </edge>
    <edge id=":J19_1" function="internal">
        <lane id=":J19_1_0" index="0" speed="8.11" length="4.19" shape="-69.19,-884.85 -69.80,-881.04 -69.98,-880.76"/>
    </edge>
    <edge id=":J19_6" function="internal">
        <lane id=":J19_6_0" index="0" speed="8.11" length="10.16" shape="-69.98,-880.76 -71.52,-878.31 -74.35,-876.65 -78.29,-876.07"/>
    </edge>
    <edge id=":J19_2" function="internal">
        <lane id=":J19_2_0" index="0" speed="6.63" length="9.27" shape="-78.32,-879.27 -75.75,-879.64 -73.91,-880.70 -72.79,-882.45 -72.39,-884.89"/>
    </edge>
    <edge id=":J19_3" function="internal">
        <lane id=":J19_3_0" index="0" speed="7.88" length="14.46" shape="-78.32,-879.27 -74.36,-878.74 -71.60,-877.05 -70.06,-874.22 -69.73,-870.23"/>
    </edge>
    <edge id=":J19_4" function="internal">
        <lane id=":J19_4_0" index="0" speed="6.36" length="9.04" shape="-72.92,-870.42 -73.13,-872.91 -74.09,-874.69 -75.82,-875.74 -78.29,-876.07"/>
    </edge>
    <edge id=":J19_5" function="internal">
        <lane id=":J19_5_0" index="0" speed="13.89" length="14.48" shape="-72.92,-870.42 -72.39,-884.89"/>
    </edge>
    <edge id=":J22_0" function="internal">
        <lane id=":J22_0_0" index="0" speed="6.10" length="10.44" shape="-266.02,-868.75 -268.47,-871.20 -270.63,-872.11 -272.49,-871.48 -274.05,-869.31"/>
    </edge>
    <edge id=":J22_1" function="internal">
        <lane id=":J22_1_0" index="0" speed="13.89" length="17.98" shape="-266.02,-868.75 -268.50,-872.18 -270.96,-876.31 -272.94,-880.64 -274.02,-884.68"/>
    </edge>
    <edge id=":J22_2" function="internal">
        <lane id=":J22_2_0" index="0" speed="7.38" length="6.16" shape="-266.02,-868.75 -269.03,-873.58 -269.05,-874.05"/>
    </edge>
    <edge id=":J22_12" function="internal">
        <lane id=":J22_12_0" index="0" speed="7.38" length="12.06" shape="-269.05,-874.05 -269.16,-877.00 -266.40,-879.02 -260.74,-879.63"/>
    </edge>
    <edge id=":J22_3" function="internal">
        <lane id=":J22_3_0" index="0" speed="5.52" length="9.50" shape="-260.78,-876.43 -263.73,-876.11 -265.17,-875.06 -265.10,-873.28 -263.53,-870.76"/>
    </edge>
    <edge id=":J22_4" function="internal">
        <lane id=":J22_4_0" index="0" speed="10.25" length="15.96" shape="-260.78,-876.43 -265.28,-876.03 -268.99,-874.71 -271.91,-872.47 -274.05,-869.31"/>
    </edge>
    <edge id=":J22_5" function="internal">
        <lane id=":J22_5_0" index="0" speed="9.23" length="3.56" shape="-260.78,-876.43 -264.32,-876.81"/>
    </edge>
    <edge id=":J22_13" function="internal">
        <lane id=":J22_13_0" index="0" speed="9.23" length="13.58" shape="-264.32,-876.81 -266.18,-877.00 -270.18,-878.57 -272.80,-881.12 -274.02,-884.68"/>
    </edge>
    <edge id=":J22_6" function="internal">
        <lane id=":J22_6_0" index="0" speed="7.96" length="12.53" shape="-270.85,-885.09 -269.95,-882.74 -267.97,-881.05 -264.90,-880.02 -260.74,-879.63"/>
    </edge>
    <edge id=":J22_7" function="internal">
        <lane id=":J22_7_0" index="0" speed="13.89" length="16.25" shape="-270.85,-885.09 -269.87,-881.30 -268.12,-877.52 -265.91,-873.95 -263.53,-870.76"/>
    </edge>
    <edge id=":J22_8" function="internal">
        <lane id=":J22_8_0" index="0" speed="13.89" length="16.29" shape="-270.85,-885.09 -270.77,-881.16 -271.39,-877.03 -272.54,-872.98 -274.05,-869.31"/>
    </edge>
    <edge id=":J22_9" function="internal">
        <lane id=":J22_9_0" index="0" speed="13.89" length="14.48" shape="-276.93,-870.70 -275.47,-874.08 -274.42,-877.52 -273.90,-881.03 -274.02,-884.68"/>
    </edge>
    <edge id=":J22_10" function="internal">
        <lane id=":J22_10_0" index="0" speed="11.32" length="19.60" shape="-276.93,-870.70 -274.28,-874.66 -270.70,-877.47 -266.19,-879.13 -260.74,-879.63"/>
    </edge>
    <edge id=":J22_11" function="internal">
        <lane id=":J22_11_0" index="0" speed="7.71" length="6.73" shape="-276.93,-870.70 -274.21,-874.61 -272.41,-875.37"/>
    </edge>
    <edge id=":J22_14" function="internal">
        <lane id=":J22_14_0" index="0" speed="7.71" length="10.79" shape="-272.41,-875.37 -271.07,-875.93 -267.51,-874.65 -263.53,-870.76"/>
    </edge>
    <edge id=":J23_0" function="internal">
        <lane id=":J23_0_0" index="0" speed="6.57" length="7.57" shape="-233.38,-835.29 -235.40,-835.28 -237.06,-834.68 -238.37,-833.50 -239.34,-831.73"/>
    </edge>
    <edge id=":J23_1" function="internal">
        <lane id=":J23_1_0" index="0" speed="11.45" length="11.51" shape="-233.38,-835.29 -236.56,-835.83 -238.97,-836.67 -241.03,-838.13 -243.19,-840.49"/>
    </edge>
    <edge id=":J23_2" function="internal">
        <lane id=":J23_2_0" index="0" speed="10.23" length="9.10" shape="-240.71,-842.50 -238.95,-840.52 -237.43,-839.42 -235.62,-838.85 -232.97,-838.46"/>
    </edge>
    <edge id=":J23_3" function="internal">
        <lane id=":J23_3_0" index="0" speed="9.20" length="3.13" shape="-240.71,-842.50 -239.23,-840.10 -239.14,-839.80"/>
    </edge>
    <edge id=":J23_6" function="internal">
        <lane id=":J23_6_0" index="0" speed="9.20" length="8.27" shape="-239.14,-839.80 -238.50,-837.51 -238.54,-834.72 -239.34,-831.73"/>
    </edge>
    <edge id=":J23_4" function="internal">
        <lane id=":J23_4_0" index="0" speed="7.82" length="8.05" shape="-242.33,-832.87 -241.75,-835.01 -241.70,-837.00 -242.18,-838.83 -243.19,-840.49"/>
    </edge>
    <edge id=":J23_5" function="internal">
        <lane id=":J23_5_0" index="0" speed="8.08" length="11.90" shape="-242.33,-832.87 -240.82,-835.65 -238.75,-837.51 -236.13,-838.45 -232.97,-838.46"/>
    </edge>
    <edge id=":J5_0" function="internal">
        <lane id=":J5_0_0" index="0" speed="6.39" length="9.04" shape="-311.11,-760.40 -311.70,-762.83 -312.92,-764.44 -314.78,-765.24 -317.27,-765.23"/>
    </edge>
    <edge id=":J5_1" function="internal">
        <lane id=":J5_1_0" index="0" speed="13.89" length="16.25" shape="-311.11,-760.40 -311.31,-764.34 -311.23,-768.52 -310.90,-772.69 -310.36,-776.60"/>
    </edge>
    <edge id=":J5_2" function="internal">
        <lane id=":J5_2_0" index="0" speed="8.62" length="4.32" shape="-311.11,-760.40 -310.86,-764.37 -310.70,-764.68"/>
    </edge>
    <edge id=":J5_12" function="internal">
        <lane id=":J5_12_0" index="0" speed="8.62" length="11.26" shape="-310.70,-764.68 -309.27,-767.46 -306.34,-769.66 -302.08,-770.99"/>
    </edge>
    <edge id=":J5_3" function="internal">
        <lane id=":J5_3_0" index="0" speed="7.25" length="10.73" shape="-301.51,-767.84 -304.52,-766.92 -306.60,-765.43 -307.73,-763.36 -307.92,-760.70"/>
    </edge>
    <edge id=":J5_4" function="internal">
        <lane id=":J5_4_0" index="0" speed="13.89" length="15.98" shape="-301.51,-767.84 -317.27,-765.23"/>
    </edge>
    <edge id=":J5_5" function="internal">
        <lane id=":J5_5_0" index="0" speed="7.53" length="4.55" shape="-301.51,-767.84 -306.06,-767.67"/>
    </edge>
    <edge id=":J5_13" function="internal">
        <lane id=":J5_13_0" index="0" speed="7.53" length="11.16" shape="-306.06,-767.67 -309.05,-769.07 -310.49,-772.05 -310.36,-776.60"/>
    </edge>
    <edge id=":J5_6" function="internal">
        <lane id=":J5_6_0" index="0" speed="5.89" length="9.11" shape="-307.21,-776.07 -307.28,-773.43 -306.45,-771.70 -304.71,-770.89 -302.08,-770.99"/>
    </edge>
    <edge id=":J5_7" function="internal">
        <lane id=":J5_7_0" index="0" speed="13.89" length="15.42" shape="-307.21,-776.07 -307.74,-772.29 -308.05,-768.40 -308.13,-764.51 -307.92,-760.70"/>
    </edge>
    <edge id=":J5_8" function="internal">
        <lane id=":J5_8_0" index="0" speed="9.62" length="4.44" shape="-307.21,-776.07 -308.44,-771.80"/>
    </edge>
    <edge id=":J5_14" function="internal">
        <lane id=":J5_14_0" index="0" speed="9.62" length="11.48" shape="-308.44,-771.80 -310.53,-768.57 -313.48,-766.38 -317.27,-765.23"/>
    </edge>
    <edge id=":J5_9" function="internal">
        <lane id=":J5_9_0" index="0" speed="8.38" length="11.88" shape="-317.74,-768.39 -314.98,-769.25 -312.82,-770.90 -311.29,-773.35 -310.36,-776.60"/>
    </edge>
    <edge id=":J5_10" function="internal">
        <lane id=":J5_10_0" index="0" speed="13.89" length="15.88" shape="-317.74,-768.39 -302.08,-770.99"/>
    </edge>
    <edge id=":J5_11" function="internal">
        <lane id=":J5_11_0" index="0" speed="7.91" length="3.98" shape="-317.74,-768.39 -313.77,-768.41"/>
    </edge>
    <edge id=":J5_15" function="internal">
        <lane id=":J5_15_0" index="0" speed="7.91" length="10.43" shape="-313.77,-768.41 -310.80,-767.14 -308.86,-764.57 -307.92,-760.70"/>
    </edge>
    <edge id=":J7_0" function="internal">
        <lane id=":J7_0_0" index="0" speed="7.83" length="12.90" shape="-261.64,-768.11 -262.89,-770.90 -265.03,-772.67 -268.07,-773.42 -272.00,-773.15"/>
    </edge>
    <edge id=":J7_1" function="internal">
        <lane id=":J7_1_0" index="0" speed="13.89" length="17.19" shape="-261.64,-768.11 -263.05,-771.92 -265.26,-775.83 -267.95,-779.48 -270.74,-782.48"/>
    </edge>
    <edge id=":J7_2" function="internal">
        <lane id=":J7_2_0" index="0" speed="13.89" length="17.44" shape="-261.64,-768.11 -262.20,-772.19 -262.15,-776.78 -261.54,-781.34 -260.43,-785.31"/>
    </edge>
    <edge id=":J7_3" function="internal">
        <lane id=":J7_3_0" index="0" speed="7.59" length="2.66" shape="-261.64,-768.11 -261.90,-770.75"/>
    </edge>
    <edge id=":J7_20" function="internal">
        <lane id=":J7_20_0" index="0" speed="7.59" length="12.84" shape="-261.90,-770.75 -262.07,-772.52 -260.87,-775.59 -258.04,-777.31 -253.60,-777.69"/>
    </edge>
    <edge id=":J7_4" function="internal">
        <lane id=":J7_4_0" index="0" speed="5.98" length="9.14" shape="-253.77,-774.50 -256.40,-774.27 -258.07,-773.26 -258.78,-771.46 -258.53,-768.86"/>
    </edge>
    <edge id=":J7_5" function="internal">
        <lane id=":J7_5_0" index="0" speed="13.89" length="18.30" shape="-253.77,-774.50 -258.04,-774.53 -262.91,-774.26 -267.78,-773.77 -272.00,-773.15"/>
    </edge>
    <edge id=":J7_6" function="internal">
        <lane id=":J7_6_0" index="0" speed="13.89" length="3.59" shape="-253.77,-774.50 -257.29,-775.23"/>
    </edge>
    <edge id=":J7_7" function="internal">
        <lane id=":J7_7_0" index="0" speed="7.63" length="3.65" shape="-253.77,-774.50 -257.35,-775.23"/>
    </edge>
    <edge id=":J7_21" function="internal">
        <lane id=":J7_21_0" index="0" speed="13.89" length="15.39" shape="-257.29,-775.23 -258.02,-775.38 -262.76,-777.31 -267.25,-779.83 -270.74,-782.48"/>
    </edge>
    <edge id=":J7_22" function="internal">
        <lane id=":J7_22_0" index="0" speed="7.63" length="12.16" shape="-257.35,-775.23 -258.15,-775.39 -260.71,-777.49 -261.47,-780.80 -260.43,-785.31"/>
    </edge>
    <edge id=":J7_8" function="internal">
        <lane id=":J7_8_0" index="0" speed="6.02" length="9.37" shape="-257.44,-784.17 -258.08,-781.47 -257.65,-779.48 -256.15,-778.23 -253.60,-777.69"/>
    </edge>
    <edge id=":J7_9" function="internal">
        <lane id=":J7_9_0" index="0" speed="13.89" length="15.56" shape="-257.44,-784.17 -258.53,-780.49 -259.10,-776.59 -259.11,-772.65 -258.53,-768.86"/>
    </edge>
    <edge id=":J7_10" function="internal">
        <lane id=":J7_10_0" index="0" speed="11.90" length="19.13" shape="-257.44,-784.17 -259.64,-780.10 -262.80,-776.90 -266.92,-774.58 -272.00,-773.15"/>
    </edge>
    <edge id=":J7_11" function="internal">
        <lane id=":J7_11_0" index="0" speed="7.75" length="17.14" shape="-257.44,-784.17 -259.76,-780.17 -262.75,-778.55 -266.41,-779.32 -270.74,-782.48"/>
    </edge>
    <edge id=":J7_12" function="internal">
        <lane id=":J7_12_0" index="0" speed="6.16" length="10.35" shape="-268.56,-784.82 -265.86,-782.80 -263.60,-782.21 -261.79,-783.05 -260.43,-785.31"/>
    </edge>
    <edge id=":J7_13" function="internal">
        <lane id=":J7_13_0" index="0" speed="13.89" length="16.83" shape="-268.56,-784.82 -265.38,-782.30 -261.58,-780.08 -257.53,-778.44 -253.60,-777.69"/>
    </edge>
    <edge id=":J7_14" function="internal">
        <lane id=":J7_14_0" index="0" speed="13.89" length="19.01" shape="-268.56,-784.82 -265.62,-781.57 -262.62,-777.38 -260.08,-772.92 -258.53,-768.86"/>
    </edge>
    <edge id=":J7_15" function="internal">
        <lane id=":J7_15_0" index="0" speed="7.38" length="6.36" shape="-268.56,-784.82 -265.05,-780.61 -264.89,-779.75"/>
    </edge>
    <edge id=":J7_23" function="internal">
        <lane id=":J7_23_0" index="0" speed="7.38" length="11.40" shape="-264.89,-779.75 -264.45,-777.27 -266.77,-774.78 -272.00,-773.15"/>
    </edge>
    <edge id=":J7_16" function="internal">
        <lane id=":J7_16_0" index="0" speed="5.56" length="9.40" shape="-272.56,-776.30 -269.79,-777.16 -268.57,-778.48 -268.88,-780.25 -270.74,-782.48"/>
    </edge>
    <edge id=":J7_17" function="internal">
        <lane id=":J7_17_0" index="0" speed="10.86" length="15.83" shape="-272.56,-776.30 -268.30,-777.49 -264.86,-779.39 -262.24,-782.00 -260.43,-785.31"/>
    </edge>
    <edge id=":J7_18" function="internal">
        <lane id=":J7_18_0" index="0" speed="13.89" length="19.04" shape="-272.56,-776.30 -268.23,-776.93 -263.11,-777.43 -257.97,-777.72 -253.60,-777.69"/>
    </edge>
    <edge id=":J7_19" function="internal">
        <lane id=":J7_19_0" index="0" speed="9.11" length="5.95" shape="-272.56,-776.30 -267.29,-776.62 -266.65,-776.44"/>
    </edge>
    <edge id=":J7_24" function="internal">
        <lane id=":J7_24_0" index="0" speed="9.11" length="11.89" shape="-266.65,-776.44 -263.20,-775.49 -260.28,-772.90 -258.53,-768.86"/>
    </edge>
    <edge id=":J8_0" function="internal">
        <lane id=":J8_0_0" index="0" speed="5.61" length="9.31" shape="-296.22,-806.21 -298.52,-807.86 -300.33,-808.06 -301.65,-806.80 -302.48,-804.09"/>
    </edge>
    <edge id=":J8_1" function="internal">
        <lane id=":J8_1_0" index="0" speed="13.89" length="15.68" shape="-296.22,-806.21 -299.21,-808.68 -302.61,-810.81 -306.26,-812.38 -310.00,-813.14"/>
    </edge>
    <edge id=":J8_2" function="internal">
        <lane id=":J8_2_0" index="0" speed="9.66" length="4.07" shape="-296.22,-806.21 -298.94,-809.24"/>
    </edge>
    <edge id=":J8_12" function="internal">
        <lane id=":J8_12_0" index="0" speed="9.66" length="12.22" shape="-298.94,-809.24 -299.57,-809.95 -301.50,-813.59 -302.00,-817.14 -301.08,-820.58"/>
    </edge>
    <edge id=":J8_3" function="internal">